-----BEGIN PRIVATE KEY-----
MIIEvgIBADANBgkqhkiG9w0BAQEFAASCBKgwggSkAgEAAoIBAQDsla8kjE4f9KKp
uhs5QDHAfVkwK0Nx8YlZmFgrI32U/ZVaOsnPi8K4XaJ9cV++/yzoJI6QvzporUP9
FzEgHpLOt+ZI5h91HFOANOk/RHbyOCFukegGb65v3N300PkbuZayhb+fbwdxH/Qt
d+nJczbYfnwWCBnycZ62TDvOTYmdVAfvgFkbNGEaxhz6cp1PyAguuwsGOjB+Ulz4
Qbw2aSA2Z8hRjgMjz3Bmzcf3w2pvCekltTFbG8cEq/wydDjT17WlMZ/aiore/OzL
paX2NUabAY6fF6kkg4U5dP7XPVvZTnDwAB8uc4KbSqUwEngt/QUmE4Hzld1Zy4kW
pHqtmQb3AgMBAAECggEANZUVLMbmLtCeQqiW39mNKxZ4q7MwvE7DF9qsJWENYUAp
olzsNihmOpFiatzRnZV3m0AkVd4poWmUm260Pp0ODOmTq3ELMN/wfXn+Vcjw050o
3T0IeuSycj1ou7jUopXe7qHiK37fBZ0CFYYyGeERS+khu2+sSL+4/Xq4lNn0z/+3
owtOe9RcX9W5yBnMZ0FH2/8LeWrduXWWwMlAUXrsn62ctCpkuh+2KYFFyP0JUYpO
0pLJFCTOqzM2Wp/7zJ3LGVciLTfIhehJADcHdU8nEMPCw2W4yVpcZ9jJ7DVv2tgH
7UUSiBZzCehyZLbTfbUuw6Oos0buBfBZ+W3vbf05YQKBgQD9G6Pq/ZHe0p+MT3DJ
8Sm3abuRrPpYA2W8V9JTerYg/dmOedUH/KMqfMoU6tTgatl0RqH4nuLSjFRniQFT
+KGhBTSdzBbhKJcN2IWx7dMAwK39c9i0TJvHMm2N7XxODrQS71ixyTU2odDBU0CK
qaWd5H1HbMU0x1LenN+FD44usQKBgQDvSbZJmeLfNNCYMNXWLhKyktPZBy5w1hH/
mbnYns5U+xUgedPEjocb7kRap3g8QY+sB6obI+ofDaLE1gtROi5pFQYSNgR99jLW
iqziul1DxHFYBrmqv4hM7x8BM/8/ApJ0ZsZNn5dF2HlQ09kDSnuUbf20tPDAFRPt
NXRvTC0KJwKBgETPc+PZ5gNW7Ys+uaIdD0NO2nCDP1gYLFtk4MhTLxqPCMtkMddH
BrDxVhsTsKYGRnIHFde6kl29SuEO7S6ABKj6+lAAASRbXZ2lBMvXpSqqN2MVUI/L
1/nyqrgQHWA3PRt8uHc1BWOB4Hf+gyhvcJgZWznEx2RO4CenLFlHXlcxAoGBAIR8
rZ8mwwSOu4foUh1aOSQCQ6WAYmg7Po/kz49urhNDSblHesbzmz8Nt27yFpJWQnQf
ckHAqtoytJKDaJS6wAOSjl/65JXRgOhks8B9KzJgS9lPL/GoRpFCPEpwPbzncatd
VCKaYCld6B2mjhtSXAYcuEIbhMj1YqkN1b/hz3Y1AoGBAOVscjIASmbye2Vg8/xj
u7Q2mrqW/MuRJlwSSVsJCIj1xtnUJ/WphJZypnXbilWiNqMVqhO9kb2tuC7q0Z3c
154QlWn22zrbXjQWCGxLH1SZ9e+i4QHB2Pjr3RXgB6vC5I1itzNLUvmUomEwzWuv
EIzWeGBlPsUyz2YWwmGS6zRW
-----END PRIVATE KEY-----
